
LOCAL = '/ssd1/teclee/Flat4Layer'

# some day: WORKDIR = /home/teclee/scrseis/SFtests/Flat4Layer

# User-supplied data
DATA = '/home/teclee/scrseis/SFtests/Flat4Layer/Layer4AC_true/traces/obs2ms/'

#MODEL_TRUE = '/home/teclee/scrseis/SFtests/Flat4Layer/Layer4AC_true'

MODEL_INIT = '/home/teclee/scrseis/SFtests/Flat4Layer/Layer4AC_2ms'

MASK = MODEL_INIT+'/proc000000_mask.bin'

PRECOND = ''

SPECFEM_DATA = '/home/teclee/scrseis/SFtests/Flat4Layer/specfem2d/DATA'

SPECFEM_BIN = '/home/teclee/DAC/FWI/SpecFEM/specfem2d/bin'

