# input parameters
title                           = checkers
SIMULATION_TYPE                 = 1
NOISE_TOMOGRAPHY                = 0
SAVE_FORWARD                    = .false.
NPROC                           = 1
partitioning_method             = 3              
PERFORM_CUTHILL_MCKEE           = .false.        
ngnod                           = 9
NSTEP                           = 4800
#NSTEP                           = 48000
#DT                              = 0.006
DT                              = 0.06
time_stepping_scheme            = 1
AXISYM                          = .false.
P_SV                            = .true.
GPU_MODE                        = .false.
setup_with_binary_database      = 0
#MODEL                           = default
MODEL                           = binary 
#SAVE_MODEL                      = ascii 
SAVE_MODEL                      = default 

# attenuation

ATTENUATION_VISCOELASTIC        = .false.        
ATTENUATION_VISCOACOUSTIC       = .false.        

# viscoelastic or viscoacoustic attenuation
N_SLS                           = 3              
ATTENUATION_f0_REFERENCE        = 5.196152422706633      
READ_VELOCITIES_AT_f0           = .false.        
USE_SOLVOPT			= .false.

# poroelastic attenuation
ATTENUATION_PORO_FLUID_PART     = .false.        
Q0_poroelastic                  = 1              
#Q0                              = 1              
freq0_poroelastic               = 10

UNDO_ATTENUATION_AND_OR_PML     = .false.
NT_DUMP_ATTENUATION             = 500
NO_BACKWARD_RECONSTRUCTION      = .false.

# Sources

NSOURCES                        = 1              
force_normal_to_surface         = .false.        
initialfield                    = .false.
add_Bielak_conditions_bottom    = .false.        
add_Bielak_conditions_right     = .false.
add_Bielak_conditions_top       = .false.
add_Bielak_conditions_left      = .false.
ACOUSTIC_FORCING                = .false.        

# receivers
seismotype                      = 4              
subsamp_seismos                 = 1
USE_TRICK_FOR_BETTER_PRESSURE   = .false.
NSTEP_BETWEEN_OUTPUT_SEISMOS    = 5000000        
USER_T0                         = 0.0d0
save_ASCII_seismograms          = .false.
save_binary_seismograms_single  = .true.         
save_binary_seismograms_double  = .false.        
SU_FORMAT                       = .true.        
use_existing_STATIONS           = .true.	#different
nreceiversets                   = 1 		#different
#use_existing_STATIONS           = .false.	#different
#nreceiversets                   = 2 		#different
anglerec                        = 0.d0           
rec_normal_to_surface           = .false.        
#nrec                            = 11             
#xdeb                            = 300.           
#zdeb                            = 2200.          
#xfin                            = 3700.          
#zfin                            = 2200.          
#record_at_surface_same_vertical = .true.         
#nrec                            = 11             
#xdeb                            = 2500.          
#zdeb                            = 2500.          
#xfin                            = 2500.          
#zfin                            = 0.             
#record_at_surface_same_vertical = .false.        

# adjoint kernel outputs

save_ASCII_kernels              = .false.
NSTEP_BETWEEN_COMPUTE_KERNELS   = 1		#different - new

# boundary conditions

PML_BOUNDARY_CONDITIONS         = .false.
NELEM_PML_THICKNESS             = 3
ROTATE_PML_ACTIVATE             = .false.
ROTATE_PML_ANGLE                = 30.
K_MIN_PML                       = 1.0d0  #new. correct?
K_MAX_PML                       = 1.0d0  #new. correct?
damping_change_factor_acoustic  = 0.5d0  #new. correct?
damping_change_factor_elastic   = 1.0d0  #new. correct?
PML_PARAMETER_ADJUSTMENT        = .false.
STACEY_ABSORBING_CONDITIONS     = .true.
ADD_PERIODIC_CONDITIONS         = .false.
PERIODIC_HORIZ_DIST             = 4000.d0

# velocity and density models

nbmodels                        = 1
#1 1 2600.d0 5800.d0 3500.0d0 0 0 9999 9999 0 0 0 0 0 0
1 1 2600.d0 5800.d0 0 0 0 10.d0 10.d0 0 0 0 0 0 0
TOMOGRAPHY_FILE                 = none
read_external_mesh              = .false.

# PARAMETERS FOR EXTERNAL MESHING

mesh_file                       = ./DATA/mesh_file          
nodes_coords_file               = ./DATA/nodes_coords_file  
materials_file                  = ./DATA/materials_file     
free_surface_file               = ./DATA/free_surface_file  
axial_elements_file             = ./DATA/axial_elements_file   
absorbing_surface_file          = ./DATA/absorbing_surface_file   
CPML_element_file               = EltPML_xxxxxx						#different - new
acoustic_forcing_surface_file   = ./DATA/MSH/Surf_acforcing_Bottom_enforcing_mesh   
absorbing_cpml_file             = ./DATA/absorbing_cpml_file   
tangential_detection_curve_file = ./DATA/courbe_eros_nodes  

# PARAMETERS FOR INTERNAL MESHING

interfacesfile                  = interfaces.dat
xmin                            = 0.d0           
xmax                            = 480000.d0
nx                              = 40 
absorbbottom                    = .true.
absorbright                     = .true.
absorbtop                       = .true.
absorbleft                      = .true.
nbregions                       = 1
1 40  1 40 1

# display parameters

NSTEP_BETWEEN_OUTPUT_INFO       = 1000
output_grid_Gnuplot             = .true.        
output_grid_ASCII               = .false.        
OUTPUT_ENERGY                   = .false.
NTSTEP_BETWEEN_OUTPUT_ENERGY    = 1000
COMPUTE_INTEGRATED_ENERGY_FIELD = .false.

# movies/images/snaphots

NSTEP_BETWEEN_OUTPUT_IMAGES     = 4000
cutsnaps                        = 1.
output_color_image              = .false.
imagetype_JPEG                  = 5
factor_subsample_image          = 1.0d0          
USE_CONSTANT_MAX_AMPLITUDE      = .false.        
CONSTANT_MAX_AMPLITUDE_TO_USE   = 1.17d4         
POWER_DISPLAY_COLOR             = 0.30d0         
DRAW_SOURCES_AND_RECEIVERS      = .true.         
DRAW_WATER_IN_BLUE              = .true.         
USE_SNAPSHOT_NUMBER_IN_FILENAME = .false.        

#### for PostScript snapshots ####
output_postscript_snapshot      = .true.
imagetype_postscript            = 1              
meshvect                        = .false.         
modelvect                       = .true.        
boundvect                       = .false.         
interpol                        = .true.         
pointsdisp                      = 6              
subsamp_postscript              = 1              
sizemax_arrows                  = 1.d0           
US_LETTER                       = .false.        

output_wavefield_dumps          = .false.        
imagetype_wavefield_dumps       = 1              
use_binary_for_wavefield_dumps  = .false.        
NUMBER_OF_SIMULTANEOUS_RUNS     = 1
BROADCAST_SAME_MESH_AND_MODEL   = .true.

#--------------------
#leftovers
freq0                           = 10             
#f0_attenuation                  = 5.196          
nt				= 4800
deltat				= .06
#deltat				= .0001
