# simulation input parameters
title                           = marmousi
SIMULATION_TYPE                 = 1   
NOISE_TOMOGRAPHY                = 0   
SAVE_FORWARD                    = .true.   
NPROC                           = 1
partitioning_method             = 3              
ngnod                           = 9              
NSTEP                           = 3000
DT                              = 1.0e-3
time_stepping_scheme            = 1   
AXISYM                          = .false.
P_SV                            = .true.
GPU_MODE                        = .false.
setup_with_binary_database      = 0
MODEL                           = binary
SAVE_MODEL                      = default

# attenuation
ATTENUATION_VISCOELASTIC        = .false.
ATTENUATION_VISCOACOUSTIC       = .false.
N_SLS                           = 2                      
ATTENUATION_f0_REFERENCE        = 5.196152422706633      
READ_VELOCITIES_AT_f0           = .false.
USE_SOLVOPT                     = .false.
ATTENUATION_PORO_FLUID_PART     = .false.        
Q0_poroelastic                  = 1
freq0_poroelastic               = 10
UNDO_ATTENUATION_AND_OR_PML     = .false.
NT_DUMP_ATTENUATION             = 500
NO_BACKWARD_RECONSTRUCTION      = .false.

# sources
NSOURCES                        = 1              
force_normal_to_surface         = .false.        
initialfield                    = .false.        
add_Bielak_conditions_bottom    = .false.
add_Bielak_conditions_right     = .false.
add_Bielak_conditions_top       = .false.
add_Bielak_conditions_left      = .false.
ACOUSTIC_FORCING                = .false.

# receivers
seismotype                      = 1              
subsamp_seismos                 = 1              
USE_TRICK_FOR_BETTER_PRESSURE   = .false.
NSTEP_BETWEEN_OUTPUT_SEISMOS    = 5000000        
USER_T0                         = 0.0d0          
save_ASCII_seismograms          = .false.         
save_binary_seismograms_single  = .true.         
save_binary_seismograms_double  = .false.        
SU_FORMAT                       = .true.        
use_existing_STATIONS           = .false. #was false in m0
nreceiversets                   = 1              
anglerec                        = 0.d0           
rec_normal_to_surface           = .false.        
nrec                            =  500
xdeb                            =   50.          
zdeb                            = 3490.          
xfin                            = 9150.          
zfin                            = 3490.          
record_at_surface_same_vertical = .false.        

# adjoint kernel outputs
save_ASCII_kernels              = .false.
NSTEP_BETWEEN_COMPUTE_KERNELS   = 1

# boundary conditions
PML_BOUNDARY_CONDITIONS         = .false.
NELEM_PML_THICKNESS             = 3
ROTATE_PML_ACTIVATE             = .false.
ROTATE_PML_ANGLE                = 30.
K_MIN_PML                       = 1.d0
K_MAX_PML                       = 1.d0
damping_change_factor_acoustic  = 0.5d0
damping_change_factor_elastic   = 1.d0
PML_PARAMETER_ADJUSTMENT        = .false.
STACEY_ABSORBING_CONDITIONS     = .true.
ADD_PERIODIC_CONDITIONS         = .false.
PERIODIC_HORIZ_DIST             = 0.3597d0

# velocity and density models
nbmodels                        = 2              
1 1 2.7d3 1.50d3 0.0d3 0 0 9999 9999 0 0 0 0 0 0
2 1 2.7d3 5.03d3 2.5d3 0 0 9999 9999 0 0 0 0 0 0
TOMOGRAPHY_FILE                 = ./TOMO.XYZ
read_external_mesh              = .false.

# PARAMETERS FOR EXTERNAL MESHING
mesh_file                       = ./DATA/Mesh_canyon/canyon_mesh_file   
nodes_coords_file               = ./DATA/Mesh_canyon/canyon_nodes_coords_file   
materials_file                  = ./DATA/Mesh_canyon/canyon_materials_file   
free_surface_file               = ./DATA/Mesh_canyon/canyon_free_surface_file   
absorbing_surface_file          = ./DATA/Mesh_canyon/canyon_absorbing_surface_file   
CPML_element_file               = Elements_CPML_list  
tangential_detection_curve_file = ./DATA/courbe_eros_nodes 
interfacesfile                  = interfaces.dat
xmin                            = 0.d0           
xmax                            = 9200.d0          
nx                              = 90             
absorbbottom                    = .true.
absorbright                     = .true.
absorbtop                       = .true.
absorbleft                      = .true.
nbregions                       = 2
1  90  1 30 2
1  90 31 35 1

# display parameters
NSTEP_BETWEEN_OUTPUT_INFO       = 200            
output_grid_Gnuplot             = .true.        
output_grid_ASCII               = .false.        
OUTPUT_ENERGY                   = .false.
NTSTEP_BETWEEN_OUTPUT_ENERGY    = 10
COMPUTE_INTEGRATED_ENERGY_FIELD = .false.

# movies/images/snaphots
NSTEP_BETWEEN_OUTPUT_IMAGES     = 100            
cutsnaps                        = 1.             
output_color_image              = .true.         
imagetype_JPEG                  = 5              
factor_subsample_image          = 1              
USE_CONSTANT_MAX_AMPLITUDE      = .false.
CONSTANT_MAX_AMPLITUDE_TO_USE   = 1.17d4
POWER_DISPLAY_COLOR             = 0.30d0         
DRAW_SOURCES_AND_RECEIVERS      = .true.         
DRAW_WATER_IN_BLUE              = .true.         
USE_SNAPSHOT_NUMBER_IN_FILENAME = .false.        

#### for PostScript snapshots ####
output_postscript_snapshot      = .true.        
imagetype_postscript            = 1              
meshvect                        = .false.         
modelvect                       = .true.        
boundvect                       = .false.         
interpol                        = .true.         
pointsdisp                      = 6              
subsamp_postscript              = 1              
sizemax_arrows                  = 1.d0           
US_LETTER                       = .false.        

#### for wavefield dumps ####
output_wavefield_dumps          = .false.        
imagetype_wavefield_dumps       = 1              
use_binary_for_wavefield_dumps  = .false.        


NUMBER_OF_SIMULTANEOUS_RUNS     = 1
BROADCAST_SAME_MESH_AND_MODEL   = .true.

nt = 7500
deltat                          = 9.0d-4         
