# input parameters
title                           = california
SIMULATION_TYPE                 = 1   
NOISE_TOMOGRAPHY                = 0   
SAVE_FORWARD                    = .false.  
NPROC				= 1              
partitioning_method             = 3              
PERFORM_CUTHILL_MCKEE           = .false.        
ngnod                           = 4              
#seisflows reads in nt:
nt                              = 4800           
deltat                          = 6.0d-2         
#seisflows uses the newer versions:
NSTEP				= 4800
DT				= 6.0d-2
time_stepping_scheme            = 1   
AXISYM                          = .false.
P_SV				= .true.
GPU_MODE                        = .false.
setup_with_binary_database	= 0
MODEL                           = binary
SAVE_MODEL			= default

# attenuation

ATTENUATION_VISCOELASTIC        = .false.        
ATTENUATION_VISCOACOUSTIC       = .false.       

# viscoelastic or viscoacoustic attenuation
N_SLS                           = 2                     #docs say at least 3 
ATTENUATION_f0_REFERENCE        = 5.196152422706633      
READ_VELOCITIES_AT_f0           = .false.
USE_SOLVOPT			= .false.

# poroelastic attenuation
ATTENUATION_PORO_FLUID_PART     = .false.        
Q0_poroelastic                  = 1              
#Q0                              =  1
freq0_poroelastic               = 10

UNDO_ATTENUATION_AND_OR_PML     = .false.
NT_DUMP_ATTENUATION             = 500
NO_BACKWARD_RECONSTRUCTION      = .false.

# Sources

NSOURCES                        = 1              
force_normal_to_surface         = .false.        
initialfield                    = .false.        
add_Bielak_conditions_bottom    = .false.
add_Bielak_conditions_right     = .false.
add_Bielak_conditions_top       = .false.
add_Bielak_conditions_left      = .false.
ACOUSTIC_FORCING                = .false.

# receivers

seismotype                      = 1              
subsamp_seismos                 = 1              
USE_TRICK_FOR_BETTER_PRESSURE   = .false.
NSTEP_BETWEEN_OUTPUT_SEISMOS    = 5000000        
USER_T0                         = 0.0d0         
save_ASCII_seismograms          = .false.        
save_binary_seismograms_single  = .true.         
save_binary_seismograms_double  = .false.        
SU_FORMAT                       = .true.        
use_existing_STATIONS           = .true.
nreceiversets                   = 1
anglerec                        = 0.d0           
rec_normal_to_surface           = .false.        
nrec                            =    1  
xdeb                            =  0.0
zdeb                            =  0.0
xfin                            =  0.0
zfin                            =  0.0
record_at_surface_same_vertical = .true. 

# adjoint kernel outputs

save_ASCII_kernels              = .false.
NSTEP_BETWEEN_COMPUTE_KERNELS   = 1

# boundary conditions

PML_BOUNDARY_CONDITIONS         = .false.
NELEM_PML_THICKNESS             = 3
ROTATE_PML_ACTIVATE             = .false.
ROTATE_PML_ANGLE                = 30.
K_MIN_PML                       = 1.0d0  #new. correct?
K_MAX_PML                       = 1.0d0  #new. correct?
damping_change_factor_acoustic  = 0.5d0  #new. correct?
damping_change_factor_elastic   = 1.0d0  #new. correct?
PML_PARAMETER_ADJUSTMENT        = .false. #new. correct?
STACEY_ABSORBING_CONDITIONS     = .true.
ADD_PERIODIC_CONDITIONS         = .false.
PERIODIC_HORIZ_DIST             = 0.3597d0

# velocity and density models

nbmodels                        = 1              
1 1 2600.d0 5800.d0 3500.0d0 0 0 10.d0 10.d0 0 0 0 0 0 0
TOMOGRAPHY_FILE                 = none
read_external_mesh              = .false.

# PARAMETERS FOR EXTERNAL MESHING

mesh_file                       = ./DATA/Mesh_canyon/canyon_mesh_file
nodes_coords_file               = ./DATA/Mesh_canyon/canyon_nodes_coords_file
materials_file                  = ./DATA/Mesh_canyon/canyon_materials_file
free_surface_file               = ./DATA/Mesh_canyon/canyon_free_surface_file
axial_elements_file             = ./DATA/axial_elements_file 
absorbing_surface_file          = ./DATA/Mesh_canyon/canyon_absorbing_surface_file
CPML_element_file               = EltPML_xxxxxx
acoustic_forcing_surface_file   = ./DATA/MSH/Surf_acforcing_Bottom_enforcing_mesh  
absorbing_cpml_file             = ./DATA/absorbing_cpml_file   
tangential_detection_curve_file = ./DATA/courbe_eros_nodes

# PARAMETERS FOR INTERNAL MESHING

interfacesfile                  = interfaces.dat
xmin                            = 0.d0      
xmax                            = 480000.d0      
nx                              = 40             
absorbbottom                    = .true.
absorbright                     = .true.
absorbtop                       = .true.
absorbleft                      = .true.
nbregions                       = 1              
1 40  1 40 1

# display parameters

NSTEP_BETWEEN_OUTPUT_INFO       = 400            
output_grid_Gnuplot             = .false.        
output_grid_ASCII               = .false.        
OUTPUT_ENERGY                   = .false.
NTSTEP_BETWEEN_OUTPUT_ENERGY    = 10
COMPUTE_INTEGRATED_ENERGY_FIELD = .false.

# movies/images/snaphots

NSTEP_BETWEEN_OUTPUT_IMAGES     = 100            
cutsnaps                        = 1.             
output_color_image              = .false.
imagetype_JPEG                  = 3              
factor_subsample_image          = 1              
USE_CONSTANT_MAX_AMPLITUDE      = .false.
CONSTANT_MAX_AMPLITUDE_TO_USE   = 1.17d4
POWER_DISPLAY_COLOR             = 0.30d0         
DRAW_SOURCES_AND_RECEIVERS      = .true.         
DRAW_WATER_IN_BLUE              = .true.         
USE_SNAPSHOT_NUMBER_IN_FILENAME = .false.        
output_postscript_snapshot      = .false.         
imagetype_postscript            = 1              
meshvect                        = .false.        
modelvect                       = .false.        
boundvect                       = .true.         
interpol                        = .true.         
pointsdisp                      = 6              
subsamp_postscript              = 1              
sizemax_arrows                  = 1.d0           
US_LETTER                       = .false.        
output_wavefield_dumps          = .false.        
imagetype_wavefield_dumps       = 1              
use_binary_for_wavefield_dumps  = .false.        

#--------------------

NUMBER_OF_SIMULTANEOUS_RUNS	= 1
BROADCAST_SAME_MESH_AND_MODEL   = .true.


#--------------------
#leftovers
ATTENUATION_VISCOELASTIC_SOLID  = .false.        
add_Bielak_conditions           = .false.        
freq0                           =  6 #10
p_sv                            = .false.        
enreg_surf_same_vertical        = .false.         
NSTEP_BETWEEN_OUTPUT_WAVE_DUMPS = 100            
output_energy                   = .false.        
ADD_SPRING_TO_STACEY            = .false.
PERIODIC_DETECT_TOL             = 3.3334d-6
